**$ENCRYPTED_LIB
**$INTERFACE
*$
* LM51231-Q1
*****************************************************************************
* (C) Copyright 2022 Texas Instruments Incorporated. All rights reserved.
*****************************************************************************
** This model is designed as an aid for customers of Texas Instruments.
** TI and its licensors and suppliers make no warranties, either expressed
** or implied, with respect to this model, including the warranties of
** merchantability or fitness for a particular purpose.  The model is
** provided solely on an "as is" basis.  The entire risk as to its quality
** and performance is with the customer
*****************************************************************************
*
* This model is subject to change without notice. Texas Instruments
* Incorporated is not responsible for updating this model.
*
*****************************************************************************
*
** Released by: Texas Instruments Inc.
* Part: LM51231-Q1
* Date: 20OCT2022
* Model Type: TRANSIENT
* Simulator: PSPICE
* Simulator Version: 17.4
* EVM Order Number: NA
* EVM Users Guide: NA
* Datasheet: NA
* Topologies Supported: Boost
*
* Model Version: Final 1.0
*
*****************************************************************************
*
* Updates:
*
* Final 1.0
*
*
*****************************************************************************
*
* Model Usage Notes:
* 1. PSpice transient model is developed considering SIMPLIS model as reference.
* 2. Temperature effects are not modeled.
*
*****************************************************************************
.SUBCKT LM51231-Q1 BIAS COMP CSN CSP HB HO LO MODE PGOOD SS SW TRK UVLO VCC VH
+  VOUT VREF PARAMS: FSW=440k  
$CDNENCSTART_ADV2
17f62b1fb318c25603aeb85644ae98a5d179ef807807791f6459efacb9d7ffc37a831b146dc0f06bb1ef275619162e6d8f7ad0dc708bf15ae1a1d5bd0ae623b2
9cc6d8b58798690e8f5c95a80ddf41a57e4565fc3c1ef3393dd6ef254e1282734aeda741191bb30de887db065895f25821c63d750680a8ae9d0bc6fefd87e7d9
77fa0aec009d04ed4e9e8db7e26391a9642f5c5c0de20ab6e31402c9d1f06eb84f66f45981cdd96e8d8f9e9ac6f73c671fe9b7eed2f19c3e81105a4072207d03
a610ae357b44bae29aad5adb5015fcc61e7c655be7a247cd7102eeea4c4d42e363249de68e8fe31b3580353be15d081c7664ec4af70ac9b35ded5f0f4ad75e22
8c5071537b18588a770309456fe1976f003dcd329fdf5b01232904261d20de12c5a7852ff37a71b1285694b7fad414f9476a0179282ea41a858f74e2c73fd9cf
5f958bbe68049066ef597291a8d5058b1e7c655be7a247cd7102eeea4c4d42e3ea97801e39235e1a6d945928ec5e94a27664ec4af70ac9b35ded5f0f4ad75e22
9c4c9b1d60206bbb91d28d950a65381a003dcd329fdf5b01232904261d20de12c5a7852ff37a71b1285694b7fad414f9476a0179282ea41a858f74e2c73fd9cf
c5902a7b57ebcff37c7e67719f999d68fd925841cbc1fc71bd6924b6f3b9db7416b839c2ce1763bc3aa21277044f3d71d0d0822ebf816c711ab4d820d6bc92d8
6b3d710056411c52cc67f15be00b4f69c322972229d1c6d1830b12246da9d98547b3aea84467f1de0031546957043bd6cfcaac3106de29c221c83fc54048c25f
16ee3c77f375596f4a9d6956264384664b95a2b36e952d570a3247b0d2f98d76ada2f827a17b5991f764ea585d7747fab7217227a0b53b5ca403920f5506c438
c6b5f38e022a2d7de6df5da2d57d067eab666526ca882a922a27de9c32b2d103f5dbf96ead5b3a50face95db390ec03774753533697f1a69fbfe07d89926fb51
55d8b395b47e487e9debafde1ebdcbb27c3b02a99e3f43c20e949db261f288c2b5d82c519e465aeb44fbc843c21e60a4dc9c7dbcd7443e470ab83f0d7646aa90
0996356154f6234e600c4f66b115d3cf10890d71fda05fda9724c4b6059f66dddea2b3a0fe510c1b1a3f9c03c89d124c620637576b0c3b388109b9a79276044f
0816b9d0ef5982d45a41b6e76ed7a4e9989b31e90f8655a68b499706fcb69532d76544c0b04f7b557a9f47be361afc892a7780f5d4839b2c553757af1d8bc36c
23395b2963daa70da31e22af04de5d4c9537a573fd8112a06a6421519fde3c817f05cbbeab5d0084c8629231e68392daf6100e9a5dcdef6cd23ca11ec2f5ff60
00413c3695b6350ec6555ba52e3acacf03f3f16eb1efae100cb4afa03d4188d5abd92a63d7fdd6c3750a4e0d29d0137c209935b09d1c299e079104694ba9b7c9
e2a17d86e2edccd5f070127f834c9bb79bfe0fbce1feafcb6a5bc0f281db92c398ff9804dc375869fbcd03bfa1df6ac8912101a43fe21643468351ea313dbf5c
1bfe82d326c6b2ec6edcb5b11fc872bba1f243b0ab23c2bdd9a27f2f16e00508b991bb1221118761f4ba9a18cd2f688ed3b5782aa2b6560d40b44ecc07b12620
54f6c59091a508dabee51f850bb147526c13d430a39fe2f987239b70329bf4e3df38ce33a028286940fd572a45558f60506d5d66c29dcb54d03790a7c1ad6247
acbdd927e2b6cc7595cd7d969413ea9436c75cbf906ac06e48b85e6e53ca05dbdf3ff9cb1478a773b0be4ece435c370178471d19ddd93f9f90d0fa785bde016e
7a8001f41ccf7e815e546bbd9bb34ff26ee230b74dbba13e5ed9892b9b89a1d5111696335fbd950b91b1a0984e28ff6a0a0c9329a37ffdaebf5d486d15637af6
960a6e5e827fdf074cd55d7059b8f9e0e3bd3d6c62155b3d2051fb7fbf12387c84ddd1ced6399e1efa6bbf8bdfdc5f57b7f44c51396cc5c95b7b07e0f3faf085
d374f2639c5edccbfac9d8deb692b19ef9951c7688fecccb0962da81d0c2999e43f8a741a01564d4ccebe6faa542a5df120ac5fd9620515a64ab101d8609f8c7
047c291c361aea24cf8135bda7774f5d03f3f16eb1efae100cb4afa03d4188d5abd92a63d7fdd6c3750a4e0d29d0137c209935b09d1c299e079104694ba9b7c9
22c832855f06fa3ded368627467ddc2200e2eeb77ac1e45fa52b42a203fa0e89804aee3470ef92e0e572ea3aa77ac6f2792f16e67955e39798a9226614151c2a
9e33fe50dd5315afbeff78f74fd5d36471d9acbf3006329239dd5c4fa0de54d2b940376e21f9771e27b3197095d96a3d5c81eb85754141ba9d599ce66bae11d1
68cd7e50eb165dbabb826bfbd47bf8cb3ec3ad1e05aae9530bd845e4abb29ab53fe20cbc82080f16c9a612775d732260ea24a8319591b4c4e75d1d39ae9b3e5e
a96ba3ff224e05a49304539c01f3fdd1003dcd329fdf5b01232904261d20de12c5a7852ff37a71b1285694b7fad414f9476a0179282ea41a858f74e2c73fd9cf
47655d1589298c3a85394add50fa0d7b97f7e4633e1ff963e81648593496dac911a904ca2df9c45d3899d44f39bb91a8063e576e91d82accd183593c679250e9
7ea9673ecba4a002c71dd6f0113c66d341625b8670cd3289748f669e9e5bb738dec592db5104ecaf9229d60c82e29be501df4dda7829b7c6162125958909aff5
920822f6de1dd28c02e783f1e50a2407c322972229d1c6d1830b12246da9d98547b3aea84467f1de0031546957043bd6cfcaac3106de29c221c83fc54048c25f
9aa1852b8f77f1a28d42dfc489b457a9a361a46b54deaf45901909e3e399f2b7e3bd3d6c62155b3d2051fb7fbf12387c0cb3f675c48bd664a68621925ebdd122
c2433b106cab958304fc95daa7036225f25db89ac1d394d4e864d8a82ea6987eefa8a673258c460b9f1bbc8a5c78d9af1fe9b7eed2f19c3e81105a4072207d03
6ef0909facb35516da0d7db183fcf74d570cca9fcc1f023c1d5c3068bc314075bf2a2b3fc34de3f588c16f9194d80d5c5c81eb85754141ba9d599ce66bae11d1
6fb73605c8ca736ebbcfb77e1a06584135b56e2d223f1ec95bd7b341cbec81771e4788102c535fc05c4d189d5f6d185bf4c75c787b8104359b0df8faa41f9c96
8320f20ae8e1fbdf8efe28f0f21fefacab666526ca882a922a27de9c32b2d103f5dbf96ead5b3a50face95db390ec03774753533697f1a69fbfe07d89926fb51
d374f2639c5edccbfac9d8deb692b19e9400e4d8a772c3e11e63c52b2cf7e8bef8131a6f2a5960e6684a28f19da215509d757b16959c8f6fa2fcfd06a3a0170d
1ba0fda3b074b6d32cd0476a296028949ba0d8554481ba3a4bdad601c22f0092e9e04761e6477c36c5438d55d84aa97650eeeb15658bf54d79806005ebff6a1a
43987ffabcc3c75830609eb9b6010810a859c5c57ac2b5b7798ba6c9c247a87fe4cc6863e8936593d8c23cb8e84c0bad2643eee80505977e445e2889678348e9
16aee9f98b37424ea7398849762695bbe7d8ece904f61a2350dc6d5e2e3138e8b46477ec4f35fa999e7c391666122c66470645d805d477b95309fc8067d81f10
dd704bca9bdc82232508a6de019af2a9c322972229d1c6d1830b12246da9d98547b3aea84467f1de0031546957043bd6cfcaac3106de29c221c83fc54048c25f
3378e020ccaa33fa94522a4b84a6d3a9e7d8ece904f61a2350dc6d5e2e3138e8dc3056979cdccea95f8c1c143954d450470645d805d477b95309fc8067d81f10
18ede6b758eb80d5a2cb67dd9c887832c322972229d1c6d1830b12246da9d98547b3aea84467f1de0031546957043bd6cfcaac3106de29c221c83fc54048c25f
5cad3cbc9783cccf67edb69b56ac4538d06f4888ce997bbc46e76b8820a07af1b5a7f8ef3971349444367f3d62dbeb281eb26b6b791135b3ca28d65f09bfb03a
559789557aaae44c72c65e8eed04b4a689a1f8e6f45a84c60571b0766841acccdfa65d4696f174847a483b4cc436c2fda20762fd42131dce818551a71d57a03e
c7feb46d550d13f226356e33eb4a264605a3a74b34f60c2d516a0046ace7e420fa9438a779f4e9f1c7eecb14c4e0267f39d92a43e014b233f1cf5043c6591097
87832d8ad43a650bd49e0579ae6b9e2119e2951cdeb35e2f29d8d398f66150f52fbc85ffefc0742cca7b7a61952b21019f5c32a300eeda1e6bbaad05e2caf205
7bde388c8354449dcce89e8e29ac4d1d067a60b9f5d02fecce87b837528d02055d58762124398f27af1c8d27bc168854eb1a7a8bb8ddd8b9a4ec020f3e76277a
37c05100d7e35cbfa0fb1dbcea0d48e56ecdb114775585d9b38e78db10dba14ecc8e872614b84bc255c5af5990ae4ba286be0edd5747e1625755bbf98d54d210
88b94dddfb77513f36516134df7eed1cb91ba1d4aa2c4181a064fc35b7c74c47aa30dd6465ba86104b1233b4cdda88c028069dc36cf1cdb50653e85ec16f9e9e
fa3275eda535d4982c9d08a74d88f7894c3525c0125a131431a8edaa51412de9620753ade6ccbce22e230b11b533a003620637576b0c3b388109b9a79276044f
ef5b5544ab45cc442cf22917b1f8e3611e7c655be7a247cd7102eeea4c4d42e3425584ae6668a541b54ae294c90c1db3e46fea5f542b9a005d656fee502f3635
c3c8a565dadcd17c4ced30222b19c07b003dcd329fdf5b01232904261d20de12c5a7852ff37a71b1285694b7fad414f9476a0179282ea41a858f74e2c73fd9cf
ed95a54492dbe96e5a25fc60060c9f351e7c655be7a247cd7102eeea4c4d42e366fe602b71ec1eccbe589c62dfdaa6dfe46fea5f542b9a005d656fee502f3635
fe182a64fe258cddc6c8ce3483453787003dcd329fdf5b01232904261d20de12c5a7852ff37a71b1285694b7fad414f9476a0179282ea41a858f74e2c73fd9cf
fbd8d2e842bce034652dfabffb0b6a2c198eb146f19d098f1d7ca69cd1ac61ab94e1ca9cc557544af573c84f3b993c711fe9b7eed2f19c3e81105a4072207d03
6226071658d30ba7bbce423a6c4267aa047d3a03551f78b2fffd4696e1fbd3c6b5d82c519e465aeb44fbc843c21e60a4dc9c7dbcd7443e470ab83f0d7646aa90
4b3e92ff468d1a1bc6879e9d2764b9d36ee230b74dbba13e5ed9892b9b89a1d53fc2f4b37ce2317ed54bad78bb912b77cf19ff0dbbdbef9929982e8533f81607
c239fc0d16001c17e24be7b0b69f6c6bb5d82c519e465aeb44fbc843c21e60a409cdf09a0018187bf28b99d132b8fe9e635ac2db6cb7a55125253ae913c63eac
8dbbb958602553232ee699663985026b9ef4b59b82d27b3718d136702c20e10e0a369a6d23ce1f309fb9c957f63e9eca6338b49e094a88fb988fc80f138306ab
1017cb6d972917d10dafdc879604fdfaabe373cbc215f2be0e7b29eed5f40190447afda6b1881963e2612c6fd4fe54b817f4ff905eb1fcfa3de778b21d56a24c
f14892d78271d80e666d586667ba005e6d11d0fcdb52ff8b3d08823fc737426286f0022412dd39aced597a0a99f6247b8de63af6c5b3b2f5bda4e2fc892a752f
0ed75840084f99bc05980b2c10774ec87255b9bf8a4770a80b33cd1797fca48cbb1a04b796137615c1ac2c93e9243d2f887306ca06dd2f9408fecb4d6ba96f57
400f99fdc62ebea5c8b5165cfa962019003dcd329fdf5b01232904261d20de12c5a7852ff37a71b1285694b7fad414f9476a0179282ea41a858f74e2c73fd9cf
e74f3c6fb051f7305b1f812c1da8ddf9c0a0ae5db1e6ef1ed8261080429cccba86b34fb9b0f1add5307b165975ef7ad708a523d41a02047340c62c2df51ea280
a361a46b54deaf45901909e3e399f2b7e3bd3d6c62155b3d2051fb7fbf12387c84ddd1ced6399e1efa6bbf8bdfdc5f57b7f44c51396cc5c95b7b07e0f3faf085
ef63398fb19cd31aeee129919ea01805c1e28dd7ef59167a07ed7fce19e0f1ccf7efb455097ded4a39266558e2d46890736b3c378af7896af4bd05d072ae5a77
3679836d067f81a7a6b9e3ca72a25dda41584005c25603177303e7749e4a44fcd9d8d5449ff5e30a12f65b042f70045996a1ef7d806d014ce8998b821f32bded
5fcfda20859606935942e4c5a6c27cd70a369a6d23ce1f309fb9c957f63e9eca1c38af0b9a2721f61f790066bb40e5b72674807a65f374191d54f30b9bd598c7
910301d70f931d569b3b3d67721bb5453906bbf5a3d3ee1ff156c2ffb06eb72edf8ec77a92d7df656b03a47f5e17cb08c94ea51b96cb554a01a675a0ec1fa98e
bc6609d2fb7083dc7b413f55253283824332875fd80a4a4bf416e4e72e47f36b7c6f6ef6905bc57d17ddc2fe1e3346f4736b3c378af7896af4bd05d072ae5a77
7dc94779f832395059a19dedce6f2df07daa80acf1d164407a58b85c515d928101b13aedd304a203a5b20029bcf37769003cb25f597ce9e2af198d2b31707ec6
f6ab2082130cc2b8820faf58e5bee0f4817d791493dfcb94a1bd9a9cc52bf35011a904ca2df9c45d3899d44f39bb91a8063e576e91d82accd183593c679250e9
910301d70f931d569b3b3d67721bb545a2a0863e4638aac400f06f1008770617e36cda1eef5f94cff19b54370fd56b5608e25686bdbca6e49550212648ddbbe8
d5437f2ef49de3762319be1aa3a65b3121f9e939c462ce2a693a5a33d04c44e39b7f290d2aa3216d966bcaf0fe5bf0a71a115de499fc7b1e95d2601b26b44d74
7bb964c5ca3817e495129d2a6193ad63d5eb82618014209d1894847522199d6fe0acdd51e1d2927b4496699fa20d0ee91fe9b7eed2f19c3e81105a4072207d03
8f38a03cf35987a82767e9e88a06f885d6dcc5eb6a4244555510b67ff33d5a3f0a369a6d23ce1f309fb9c957f63e9eca6338b49e094a88fb988fc80f138306ab
6dc95919f64b3433b53753fdae4f0aef79cfb148ee48dac08fee30835d6c06d999fb91fba983017ebb026ef605ae4766a941fe61eff082ac14c77c7338d9c36f
594786cc6e15a3c10e1e4e242413d9c5067a60b9f5d02fecce87b837528d02055d58762124398f27af1c8d27bc168854eb1a7a8bb8ddd8b9a4ec020f3e76277a
d374f2639c5edccbfac9d8deb692b19e9400e4d8a772c3e11e63c52b2cf7e8bef8131a6f2a5960e6684a28f19da21550904c3f5a2e31aa784d761366a32aeb4a
1ba0fda3b074b6d32cd0476a296028949ba0d8554481ba3a4bdad601c22f0092e9e04761e6477c36c5438d55d84aa97650eeeb15658bf54d79806005ebff6a1a
771908ce1c9a214972366b54b31fba754e3f204a4bbf008ef169b3ec4dfcc4faf2d7e9752f6ea0f136c0a72579674b67c6da5bfa484d702ca14e2d0476c3e899
86b34fb9b0f1add5307b165975ef7ad7003dcd329fdf5b01232904261d20de12c5a7852ff37a71b1285694b7fad414f9476a0179282ea41a858f74e2c73fd9cf
9aa1852b8f77f1a28d42dfc489b457a9a361a46b54deaf45901909e3e399f2b7e3bd3d6c62155b3d2051fb7fbf12387c0cb3f675c48bd664a68621925ebdd122
6a103403e6dc80b37431fca1d8fa88875f2e2aadc60b8fb04825f89483189233299aded8f6f3eff8fb44cf5115a9c47cf2b70357b504cae2d7ddcc10776fd556
5813d0681847a53599e5c559fe58aa9f067a60b9f5d02fecce87b837528d02055d58762124398f27af1c8d27bc168854eb1a7a8bb8ddd8b9a4ec020f3e76277a
033625a4c1696b59ecf4030232bffdc3ae719478c7654f139b5fdec06709b6371157abf6ded59c1c9e7ba8f125b74f7e860f245f4d1e0f177ce09612be1b3b41
bce75743b245a0ac956b0806cd46acf8f3ec96fab4be7ad91f274733438d52b2cb7cbeb928654739232ce68474a0a0c7df610d7a20f30c9059e4b56f5227d90a
ecf28f87ff3f9c35709665d2f81589440c743d6acf3fa49ebf2f34b5394ca03027c7273a1daf2f56787e6d261a2b3983b6dee7d1b406db17f52b73cc13617e73
0d3c41c3911ab730b2b9bd9d81ff4cad0a369a6d23ce1f309fb9c957f63e9eca1c38af0b9a2721f61f790066bb40e5b72674807a65f374191d54f30b9bd598c7
da2a7b9b50232b7a837e83bf4bd285f65e2fc2ebc6b02858deed2b421f750cc1705ea904d445f6f1ac5cafe385a8beff76717e26b6d5defd04658181a76d8487
04e401090ddbc04f1d87d0fba415d48fee9d2872bc0f5c0be44630823018243e8b6264e56cacadd2bd58757ecc0bf05c3d33a477756a562fcfbb38b20d9b9f69
ac204a6467be0cdc3731e1c488634383e6d012fe6ceee304b50b1a6311baac59ec35c79e9285f09cbf7445e44f9650ef7fcd35f1c95adcb5a25cbb07acd718c0
12146c895af27b09aeff33f158d6b8b85edd4e06ccfbb59d02d91b15cb8ffc06f81bed367a7498b3d0096e0e4424fc7daf8f202d02ff0d0c97174c2738b93020
23e1ed2dee2031147934fe72a2b3d3c70f0db400db6b1f6736f2ad823501b71bb6a1bacb388573feb188e7591a8e42c0fb062eb01a98f68456e504f3bf91b8b1
c4f955363c3243fc888e52526c7f5ed9fe53ec556ab0eecd7a74ee1a7b599b2cc823d15daedfcfe06fea8cf87a3f4ea27be2f3217d24c955c4a68382b50b8ce8
1a39b7db8fa627b1c6af818a9c814adb0b01197a1a961f775fea651b4a0eec5c11a904ca2df9c45d3899d44f39bb91a8063e576e91d82accd183593c679250e9
da2a7b9b50232b7a837e83bf4bd285f65e2fc2ebc6b02858deed2b421f750cc1705ea904d445f6f1ac5cafe385a8beff76717e26b6d5defd04658181a76d8487
bdd639ec91984e87005e9bcb243db0aa954223f6eb0825d1baa4bac6000434010a369a6d23ce1f309fb9c957f63e9eca6338b49e094a88fb988fc80f138306ab
786f876038706c394249ad82713654847e37dfbfd7926ed7da06ad3864f94424a94203d9cb43e28783ccae487e2f83292643eee80505977e445e2889678348e9
49d03cfd8aeb5093a84d90ab2701293a12c9b71f4939ed04ffe0591a15509262c02761d643ac3f002fd26f635f2645c75a3e340fe6f8fd58d8cf4ef89a302929
7266c3640aeb3d4435e4ade6346029fbab666526ca882a922a27de9c32b2d103f5dbf96ead5b3a50face95db390ec03774753533697f1a69fbfe07d89926fb51
12146c895af27b09aeff33f158d6b8b85edd4e06ccfbb59d02d91b15cb8ffc06f81bed367a7498b3d0096e0e4424fc7daf8f202d02ff0d0c97174c2738b93020
097d9f0bd0fe5ae4b81bbf1ca18b1aa1c14152869343e7ac5027cc253b012392fb3164e63196e781e0d2b88fd8fc627f9e9ea888e2e8263d07bd8a33a52e4b0a
ac688fb8b4ff9d31da49dfa4f369fd70e6d012fe6ceee304b50b1a6311baac59ec35c79e9285f09cbf7445e44f9650ef7fcd35f1c95adcb5a25cbb07acd718c0
2eca46d0f5ecfb37afa8b4cc564edbc1a5cd0bcc9de0a3d5229a27486280fbe8989393a3d6b9bed21cabcdbac1a883dd7b45652a23ced8c3c172d63a67e5bdb6
1e0b92b80f62c16805806a8e7562879cbef7f52aa59b3637a93b81648d7b250d8ba8dc158982a5423b5597995fd7c80c9dfcd554565d42885643d13fa575be49
bef235d3839e32021c80af2d8c9094569f6d9ca64bb0933f137462e77fb48bf4aac1b374d7dd6e051dbf378286ae74fcea24a8319591b4c4e75d1d39ae9b3e5e
a96ba3ff224e05a49304539c01f3fdd1003dcd329fdf5b01232904261d20de12c5a7852ff37a71b1285694b7fad414f9476a0179282ea41a858f74e2c73fd9cf
47655d1589298c3a85394add50fa0d7b97f7e4633e1ff963e81648593496dac911a904ca2df9c45d3899d44f39bb91a8063e576e91d82accd183593c679250e9
d08228f59964e099b2e893b8548f4d12d4e865659fb4b8bfd648ced34fed255104e6037be143d5e86495c0c07fc44c973505662ed5966893b5cca4a5d983b404
3fe3e6c55fde05707998d2ead967d1f84546de5ec8d80be6e99b638d040097c9b70f8e23981b8c5c426ea697569c43d26f8035965e5c90596558ff67ba39f4a9
941ef3599d019fb532e62f9aa20263d6ff26572016b28664b6e4fb8d9a1297cafd434bb718249910f12926f340067af4aa2b5a5dd7f5808d0f2a67bbcaefbe61
32cd29eb262b65f951a9f6706f72911ee6d012fe6ceee304b50b1a6311baac59ec35c79e9285f09cbf7445e44f9650ef7fcd35f1c95adcb5a25cbb07acd718c0
d374f2639c5edccbfac9d8deb692b19e2cb4364cebdf18657072396887cecc7d43f8a741a01564d4ccebe6faa542a5df2d00c3e6ea5b5020a7e88fb2131d75c3
1ba0fda3b074b6d32cd0476a296028949ba0d8554481ba3a4bdad601c22f0092e9e04761e6477c36c5438d55d84aa97650eeeb15658bf54d79806005ebff6a1a
cf37eaa5e4add32942d3285bd3b0eee9cbf367d8530e2cb37e7945e7a85b89e1a44850c91c702e7667b5df829589b04f42529c0dd033f2248cefc51f08bbf87c
23d145621d75b293b402b5d0eda452809ba0d8554481ba3a4bdad601c22f0092e9e04761e6477c36c5438d55d84aa97650eeeb15658bf54d79806005ebff6a1a
910301d70f931d569b3b3d67721bb5453906bbf5a3d3ee1ff156c2ffb06eb72edf8ec77a92d7df656b03a47f5e17cb08c94ea51b96cb554a01a675a0ec1fa98e
df16c066244cb9318a3069ba64b18051cda1fe50a71613be7992c917652750cfc558f0f488c979514ccd186c8e90736228069dc36cf1cdb50653e85ec16f9e9e
0a47fa41a187c8a233107a4bbffede77e2c67508dc443a1fdf1492adb5ef7a6ee94c08267bc295dd928b8d330af693b5cdfa940ad1a6049b70487551221cb535
08e70f9b6e73b767d2d3fa93289d8c4905a3a74b34f60c2d516a0046ace7e420fa9438a779f4e9f1c7eecb14c4e0267fc815ff5d671602013c461cdcf90327a4
f79c958976e3579ceddbddd8c1c226fa1da6140231a26433763136a2d1374b1f492c86d947ec33eb7a1024b44e8eca816f8035965e5c90596558ff67ba39f4a9
b6529453fd4b44b27e348fc15ad82a19fa9345b700e192941939145f4e8b58d037ce45698500b0397cd5e128556d0d181023287508a499a8f3a6782a13c6bccd
01e5b74784dbe6f54b2a8b511911b8549a68490690d9c71fdc98fc2ff25b3cbf640aa82d28c4f08e5c67d0705ce68891b3fa9f1d74cd0d95f821b1afc2d961b3
da2a7b9b50232b7a837e83bf4bd285f65e2fc2ebc6b02858deed2b421f750cc1705ea904d445f6f1ac5cafe385a8beff76717e26b6d5defd04658181a76d8487
b7c37bec7d5f67eb1e1de3c5c8048cfe8e85d3bee51d800c7056c590795c85c2003dcd329fdf5b01232904261d20de129813d81ba051d60f6ae55f776dab8682
0d7f6c89716b7f354a61d0416678a648cf09f15f1e01176374d2e9f4195f4e00d236e550bd2183b45fdacb636a79b4e1ff084822ddefee2ba8ee4d0f92842e57
3afc4afc36edf73d00986f9753cdc5d8003dcd329fdf5b01232904261d20de12c5a7852ff37a71b1285694b7fad414f9476a0179282ea41a858f74e2c73fd9cf
8dbbb958602553232ee699663985026b9ef4b59b82d27b3718d136702c20e10e0a369a6d23ce1f309fb9c957f63e9eca6338b49e094a88fb988fc80f138306ab
1713dbf7a94d0dbfacabd36251e026a11b448f3c99d4fc4d0b7f3151a54686079844e1376984ec886fe3f80891a7732b1023287508a499a8f3a6782a13c6bccd
01e5b74784dbe6f54b2a8b511911b8549a68490690d9c71fdc98fc2ff25b3cbf640aa82d28c4f08e5c67d0705ce68891b3fa9f1d74cd0d95f821b1afc2d961b3
da2a7b9b50232b7a837e83bf4bd285f65e2fc2ebc6b02858deed2b421f750cc1705ea904d445f6f1ac5cafe385a8beff76717e26b6d5defd04658181a76d8487
0decb0ccf55d9eb68563399b64568aa8f0b33ec0bad5101de61550def8dac91da40b7294ab49842427c2d277953abb129097ce937c8fb1c62633c006d10b9ec4
86b34fb9b0f1add5307b165975ef7ad7003dcd329fdf5b01232904261d20de12c5a7852ff37a71b1285694b7fad414f9476a0179282ea41a858f74e2c73fd9cf
9aa1852b8f77f1a28d42dfc489b457a9facb6c57264ec55b530cdbf7dd9368b7e6d012fe6ceee304b50b1a6311baac5923c35871905c68e8b10fbc2184d58d2c
98b523a8ddfbead51237dcae5a777c1244f3e6a3054439b91020d9ae7783b2a44dc98579267f5a44cf6537d55b7a40c1620637576b0c3b388109b9a79276044f
94d59d5961eb03749e5364afec1bbdf5b3f2f490fbeb5b06910596d55bc519a73a64ef52c301b3285dbe65d952a4dbed081e1395138c89e69f39b310d906bcf9
04ec800d389404a1697a597d42d538626b18fa5dc6b46c0fa8139a8de012529fd8561b070a81d44d9c8a92283f1b3618a603bb1e1a19e4caa6da9bb31c9f34c2
6b449c268e928f095ec9ef4639651961b5d82c519e465aeb44fbc843c21e60a409cdf09a0018187bf28b99d132b8fe9e635ac2db6cb7a55125253ae913c63eac
9769e65070ecd815fb62d7684d2574886b18fa5dc6b46c0fa8139a8de012529f0c786d2082536c5b9c4dafb919533f8bce4bcad4c18ba4e0a2fa940b466a5eb8
ff3db7e8b0aaa21bce7096997247cc34ab666526ca882a922a27de9c32b2d103f5dbf96ead5b3a50face95db390ec03774753533697f1a69fbfe07d89926fb51
79e12cf1e390eb594c1a5fccfeb5caf4e4ffdd40de5c0d7fd8a55e245060d692067a60b9f5d02fecce87b837528d0205b6fd08b664a5821ff7aaa59758b7421e
eef30ff30006ec794a8863709687dd20a9b5760f446e5964e9f12be5361250c53bbd1d0780cc54a510570a3619a2c17c2643eee80505977e445e2889678348e9
0a1b528991389b58acc3dd78eea1a2c7c55f4ca98a9b3dac14834b236df391793579c2e950db2806a310cb4bf53afb169803fb04f8a53567f18b306f232197cd
4966e506dc072aecb0b6d66bcd087a33e64479e4ee64043b115fbc6feb79d47e79a8a8c0bf930b78480dbdc994819e8833f8ec432df5979d1dcf8c7fd79dff10
c239fc0d16001c17e24be7b0b69f6c6bb5d82c519e465aeb44fbc843c21e60a409cdf09a0018187bf28b99d132b8fe9e635ac2db6cb7a55125253ae913c63eac
8dbbb958602553232ee699663985026b9ef4b59b82d27b3718d136702c20e10e0a369a6d23ce1f309fb9c957f63e9eca6338b49e094a88fb988fc80f138306ab
25ee1a9e5c2945168f6bace73f90f3ac92966988590d03c417ee66994ad8d908b5501f4ba8a5938996deee14219e6cbd25f1ce1cc7adc9400bd27395c2613158
ff41817d38c213a03b320b153c1bb7cdb5d82c519e465aeb44fbc843c21e60a409cdf09a0018187bf28b99d132b8fe9e635ac2db6cb7a55125253ae913c63eac
f17394bf7ded020a4fcf6243df43211c92966988590d03c417ee66994ad8d90826de9384a3cd2905251b8ea744976c343e3daa8be1a3bdba8ee999c4fa3de700
07fa3d02cb192f083dd472504252482d6c13d430a39fe2f987239b70329bf4e3df38ce33a028286940fd572a45558f60506d5d66c29dcb54d03790a7c1ad6247
29164a703e344d32755dcdc263ede5274bb8f075d7ba894301a81b4d75f7a563ad64d60c7738bcd7abcd6ca4b145ac0716e31a45c054d891cf2c95eb2c0e16ee
4e767728771b8057f5775a1d9d45dcaa6c13d430a39fe2f987239b70329bf4e3df38ce33a028286940fd572a45558f60506d5d66c29dcb54d03790a7c1ad6247
d374f2639c5edccbfac9d8deb692b19e9400e4d8a772c3e11e63c52b2cf7e8bef8131a6f2a5960e6684a28f19da21550ea9ac29dd13d0271a04012d5ed539664
c4c85a93807210d9aa0ee799f7bb756889a1f8e6f45a84c60571b0766841acccdfa65d4696f174847a483b4cc436c2fda20762fd42131dce818551a71d57a03e
fbb4791337fa1f400f2939296eb38e2dd87df496997c27b493a848a4f23fdf37cd0d0a0b7683614fdf89b531e371d167adc04d1932a7eb63a6304593d519a71e
556bc2e6405650066183137af508a64040e40dee0ca2c0d8d906d8e8ac6d94af65249f1ce9387975174a15d93419fe683dbde498584330e5327c99926b35a35d
97acd2d5e16f215830726433e3958d80817d791493dfcb94a1bd9a9cc52bf35011a904ca2df9c45d3899d44f39bb91a8063e576e91d82accd183593c679250e9
910301d70f931d569b3b3d67721bb545a2a0863e4638aac400f06f1008770617b15699381a5c400e58c73459518e5cdd6110674890a34c59363df680c2b60dd7
04a7130651e56d9d614dc3d48dea9ac3e79ec9eb703571b93d5532c01f2ee99d39b54cd2c1f4b73215cde46cd379b00ac94ea51b96cb554a01a675a0ec1fa98e
b83c8bfbee55ecdd4aa0a7e2318b4803b5d6a0df2bc56538354eae2c056e6c6104e3ac5da7786ac5b1fae8d3ce1171b8f5f00e43de33743cbf65a9a26ef5d61d
c0387ca0bde871696d969afa5d0af2d44b78f1da9d67daac5f9a82cf9d5df9f10974441eff03ae54f1312446a759d6037cda72a3fba43b1c07b30b3867bbd5ba
6a670fbc31c4a0061aa788a69e8ac0ae067a60b9f5d02fecce87b837528d02055d58762124398f27af1c8d27bc168854eb1a7a8bb8ddd8b9a4ec020f3e76277a
acbdd927e2b6cc7595cd7d969413ea9436c75cbf906ac06e48b85e6e53ca05dbdf3ff9cb1478a773b0be4ece435c370178471d19ddd93f9f90d0fa785bde016e
6a40e94cae0950ef796bbd09c141aa296b103ade35aa4220578276357e356d37e2d4b484fe99d5857c41d0ae48da6fa71fe9b7eed2f19c3e81105a4072207d03
f7bd2dac57b6f6e4da7e98a7f1e7ddcd3bd2194c5542ccc798fc140a8c72aa68f2fea89bf0aff2855cd5940dd104bb414943e2b15dfc2d1a55240569cdcefb83
1ed4a190137e5ed7faa7fddebc1b1df69bfe0fbce1feafcb6a5bc0f281db92c398ff9804dc375869fbcd03bfa1df6ac8912101a43fe21643468351ea313dbf5c
e9c85594b165e23bff50300129c84ec49de0ed5f2710e6d353dd6524073b26924555b1473a57cf1ef7fc995c386647c91fe9b7eed2f19c3e81105a4072207d03
fbadbdaf9bce388ff83528c74b9ae71ce1c6cf8907b478bf3986160fcf2bdd8fa4203eb2c15d2fa90a6f2ed3897a5f32adc04d1932a7eb63a6304593d519a71e
3f87fabfc98bc3d9db4a2848a0b235e3a0cc449a5e2e75b7486e336102ca5c29bbd1d031c173913e0aa6268a8357af06dee37d1c50fef923a648ee31b1c4b46f
0995cbe3f4cb6c31e72ab2ecfde5154d89a1f8e6f45a84c60571b0766841acccdfa65d4696f174847a483b4cc436c2fda20762fd42131dce818551a71d57a03e
f402c8f44bace23750a13352d0b40d1150ed81b393f0e8d303a9694f45b03d13159f8999b299a0ed8c7b53d0e517698edac1d731581bc3c241d477333bcfa014
03816cdc43fdd9b598b80dbbd3957be93a24fa30d885f1648cac7e5175f31e18382c7c8760ec7cf7d8069d11c450462108e25686bdbca6e49550212648ddbbe8
be08aba97f0d9e8fe320a36a6efac3a6e5d585d479bc6b3bd8f879fa79fb3d26b897e061f1a008aef333483396179c1c797ae29cc0092986f221198c5d2d3ee3
698cc0351087e6bcd134a40d4f17f677c322972229d1c6d1830b12246da9d98547b3aea84467f1de0031546957043bd6cfcaac3106de29c221c83fc54048c25f
8dbbb958602553232ee699663985026bf27df898a28dba987622e4c27b2d41519ba0d8554481ba3a4bdad601c22f0092be0a1bcc1c14690dcc2ff89796af5553
92c949a50b77fbbce16af5f1ffe0bfe89b2df08a6759f26becbb2effab5c98dd3e517cd560ceebbd2a3e0cfdc2f0b15bb0ae236bec0fcabd91f23d2ba02ffa2f
1a39b7db8fa627b1c6af818a9c814adb0b01197a1a961f775fea651b4a0eec5c11a904ca2df9c45d3899d44f39bb91a8063e576e91d82accd183593c679250e9
47655d1589298c3a85394add50fa0d7b97f7e4633e1ff963e81648593496dac911a904ca2df9c45d3899d44f39bb91a8063e576e91d82accd183593c679250e9
340a1f7c7937da435e31290b3736d0e415c9efbb3189cc0b5ed783aec7573a1ce4e99a67b9c1b04958008de4d37075daadc04d1932a7eb63a6304593d519a71e
bd2ce647b5ee19065182d5fbc9bc74b14eb0cd568039047e3c7a6925f20430d3447afda6b1881963e2612c6fd4fe54b817f4ff905eb1fcfa3de778b21d56a24c
7f0c75d3f5c6d032e2d47f96e43cbf50d58a82383cbfcb1083a891673ffedb3f460aa0122527ac9d6dbcd46c6a7d4b706f8035965e5c90596558ff67ba39f4a9
49a1b16000e1267d94bd08beff9b2cff7c9212a75c8239fdd2c6d010806ea44d339cdae5057b3d44d11f454b8dda94071980e972fbcaa211c78e08774384f59a
80d8cc285860bdbbfb68f42d37f55193bae552f45a736040ac056c770976738b7fb9b53df24be95575e4e77da7c343d881c56035d9f668724219df011bf2a13b
48cb6d43eebd7440b992654f944d520ae3bd3d6c62155b3d2051fb7fbf12387c84ddd1ced6399e1efa6bbf8bdfdc5f57b7f44c51396cc5c95b7b07e0f3faf085
12146c895af27b09aeff33f158d6b8b85edd4e06ccfbb59d02d91b15cb8ffc06f81bed367a7498b3d0096e0e4424fc7daf8f202d02ff0d0c97174c2738b93020
5264f2e7e6f560238180ffecfa090a9385d6f9557274f3460d9247cb7d8db4c0217738dd1cffaa525c1abf37c73a52be6d99d3b20ae2d8d9c7834b08b5df3255
6ebd2a007388dd969f2779536ad7b5789ba0d8554481ba3a4bdad601c22f0092e9e04761e6477c36c5438d55d84aa97650eeeb15658bf54d79806005ebff6a1a
bf9ec2b0e9619a2f059a0d2ca981f48ac5f0b70d1c3baafd48e13452f47fa2db9ba0d8554481ba3a4bdad601c22f0092be0a1bcc1c14690dcc2ff89796af5553
bb76f249168ddc8f292889800705d0f676f2c941ef61517e67d3585c5bf263488768895b24371d5b7b8f1090ed0954ab619310ce223487e1aa32e0044e33d4d6
62a2373387f7cbba996ab9d8620a88d3c547d5543bfb3d208518add47fe350ff8fcb4943e37e9f7af6d7ed2911748e0f16fe2e86667fd1cd65523c1868c3394b
92d76faa63d15326e77569bef401d9f0b5d82c519e465aeb44fbc843c21e60a409cdf09a0018187bf28b99d132b8fe9e635ac2db6cb7a55125253ae913c63eac
9aa1852b8f77f1a28d42dfc489b457a9facb6c57264ec55b530cdbf7dd9368b7e6d012fe6ceee304b50b1a6311baac5923c35871905c68e8b10fbc2184d58d2c
e7df77916663d51bc329c497dff12ce90e23f98c9812dd1f0fc1422075b97c8e9b7f290d2aa3216d966bcaf0fe5bf0a7cb9b08333be27a3f38e2c68f090451d9
c78a011c79160cceb516626d497db119a847f7ec7e1e4ab7408b5e9ecf11a8039cf3fd1ba35764480f65c5ad74ac92da25a05de3dc65a9eb25e18870e55b9cca
23d145621d75b293b402b5d0eda452809ba0d8554481ba3a4bdad601c22f0092e9e04761e6477c36c5438d55d84aa97650eeeb15658bf54d79806005ebff6a1a
910301d70f931d569b3b3d67721bb5453906bbf5a3d3ee1ff156c2ffb06eb72edf8ec77a92d7df656b03a47f5e17cb08c94ea51b96cb554a01a675a0ec1fa98e
c14e7ff90954da4c619ad6d959b8ba69cd2789db2e6b7e3195c380ba24b137a93e620f7746d9dbb3b7d0eee4938dc3c67edc50f275f22ee8b4a61b5c7b1c82f4
a6bb14f70d4793e154dbe4aecce1562ae3bd3d6c62155b3d2051fb7fbf12387c84ddd1ced6399e1efa6bbf8bdfdc5f57b7f44c51396cc5c95b7b07e0f3faf085
31b8101d1a318203fba1800ca9beb0fdab10a13652fe762ab994fc900291efb351abf85de7b23f05d82565bee79b77bca96eb89c28f678fd287db2c27c40cd55
ccef26a6e6dae3d87d75172408d4a746003dcd329fdf5b01232904261d20de12c5a7852ff37a71b1285694b7fad414f9476a0179282ea41a858f74e2c73fd9cf
7cac73fcc7bb7dbe5d37cfb633539b2e293415101e91fb66f4f5e3d678697cfbecd02cf8df3f6b5f3e45dc5772a447322643eee80505977e445e2889678348e9
4ea01e8ba3a78b74e123ae9b9eea629bee4bd26f739b40d86de96be7e773d4f02e958e277ce568d68e4608fb6ff329ed59cb732bbd22a1c6da6910665a466879
8fc4f7843dbc26f4adc39e961e7ea6349ba0d8554481ba3a4bdad601c22f0092e9e04761e6477c36c5438d55d84aa97650eeeb15658bf54d79806005ebff6a1a
4c0632aea10322cd8ccce9ce461bc0316ecdb114775585d9b38e78db10dba14ecc8e872614b84bc255c5af5990ae4ba286be0edd5747e1625755bbf98d54d210
257f5574155d3d8bce52700d43ec5cbe4dfa19324c0ab4455bb65a717e904cfec00bfd261697027b38ea1fa35fb98628b6dee7d1b406db17f52b73cc13617e73
0d3c41c3911ab730b2b9bd9d81ff4cad0a369a6d23ce1f309fb9c957f63e9eca1c38af0b9a2721f61f790066bb40e5b72674807a65f374191d54f30b9bd598c7
47655d1589298c3a85394add50fa0d7b97f7e4633e1ff963e81648593496dac911a904ca2df9c45d3899d44f39bb91a8063e576e91d82accd183593c679250e9
836eb89a80c4f255fb0e73a67f3efd8e747b9a9de758fe71bc559aad5e51011bf446a381127bc4e378c24943449425d87daba17e1c0a8c6ea14e63030d6627db
5e779d4e7fa70e7545a2c842089715fc0a369a6d23ce1f309fb9c957f63e9eca1c38af0b9a2721f61f790066bb40e5b72674807a65f374191d54f30b9bd598c7
910301d70f931d569b3b3d67721bb5453906bbf5a3d3ee1ff156c2ffb06eb72edf8ec77a92d7df656b03a47f5e17cb08c94ea51b96cb554a01a675a0ec1fa98e
0528332e262c6d8704a578327ae1bbcb4847f3db8bc879ed8fe7f8255521b7d1ef8722592b714bcfe5bf2aa99eb9ae5234a64baf7f9cbc6b681339a7f0e71081
2708dbf190fa425e94fc47a51f81be33b5d82c519e465aeb44fbc843c21e60a409cdf09a0018187bf28b99d132b8fe9e635ac2db6cb7a55125253ae913c63eac
6770a55f61719f49a1af6784553476be4847f3db8bc879ed8fe7f8255521b7d1fc37f92063637a305fd4ebf74c7ec6ba370d5f00ca0a71a7cd9fdfa89d65b466
d63498cfb4b8dce4d8804554fcabb9089a68490690d9c71fdc98fc2ff25b3cbf640aa82d28c4f08e5c67d0705ce68891b3fa9f1d74cd0d95f821b1afc2d961b3